!-----------------------------------------------------------------------|
!                                                                       |
!                     Test for photolysis mechanism            	        |
!                                                                       |
!-----------------------------------------------------------------------|
ELEMENTS
O H N S
END
!-----------------------------------------------------------------------|
SPECIES
O O(1D) O2 O3 H2O HO2 OH N2 SO2 SO3 HSO3 H2SO4 H
END
!-----------------------------------------------------------------------|
REACTIONS							MOLECULES			KELVINS
O + O3 => 2O2                       8.00E−12    0       2060
O(1D) + H2O => 2OH                  1.63E−10    0       −65
!O(1D) + N2 => O + N2               1.79E−11    0       −110
O + OH => O2 + H					2.40E−11 	0 		−110
O + HO2 => OH + O2 					2.70E−11 	0 		−224
H + O2 + M => HO2 + M 				2.17E−29 	−1.1 	0
OH + O3 => HO2 + O2 				1.70E−12 	0 		940
OH + HO2 => H2O + O2 				4.80E−11 	0 		−250
OH + SO2 => HSO3 					7.07E−11 	−0.7 	0
O + SO2 + M => SO3 + M 				4.00E−32 	0 		1000
SO3 + H2O => H2SO4 					1.20E−15 	0 		0
HSO3 + O2 => HO2 + SO3 				1.30E−12 	0 		330
!------------------------------------------------------------------------|
!-------------------------Photolysis reactions---------------------------|
!------------------------------------------------------------------------|
O3 => O(1D) + O2   					1		 	0 		0
END
!-----------------------------------------------------------------------|